<?xml version="1.0" encoding="UTF-8"?>

<!-- generated on 2022-09-07 21:02:09 by Eclipse SUMO netedit Version 1.14.1
<configuration xmlns:xsi="http://www.w3.org/2001/XMLSchema-instance" xsi:noNamespaceSchemaLocation="http://sumo.dlr.de/xsd/netconvertConfiguration.xsd">

    <input>
        <sumo-net-file value="C:\Users\Joseph\SUMO_Projects\busNetwork\demo.net.xml"/>
    </input>

    <output>
        <output-file value="C:\Users\Joseph\SUMO_Projects\busNetwork\demo.net.xml"/>
    </output>

    <processing>
        <geometry.min-radius.fix.railways value="false"/>
        <geometry.max-grade.fix value="false"/>
        <offset.disable-normalization value="true"/>
        <lefthand value="false"/>
    </processing>

    <junctions>
        <no-turnarounds value="true"/>
        <junctions.corner-detail value="5"/>
        <junctions.limit-turn-speed value="5.5"/>
        <rectangular-lane-cut value="false"/>
    </junctions>

    <pedestrian>
        <walkingareas value="false"/>
    </pedestrian>

</configuration>
-->

<net version="1.9" junctionCornerDetail="5" limitTurnSpeed="5.50" xmlns:xsi="http://www.w3.org/2001/XMLSchema-instance" xsi:noNamespaceSchemaLocation="http://sumo.dlr.de/xsd/net_file.xsd">

    <location netOffset="0.00,0.00" convBoundary="-4.84,37.96,69.24,106.48" origBoundary="-10000000000.00,-10000000000.00,10000000000.00,10000000000.00" projParameter="!"/>


    <!-- HERE -->

    <!-- <edge id=":J10_0" function="internal">
        <lane id=":J10_0_0" index="0" disallow="pedestrian" speed="6.43" length="5.75" shape="11.48,102.31 12.44,104.19 13.34,105.54 14.19,106.35 14.98,106.64"/>
    </edge>
    <edge id=":J11_0" function="internal">
        <lane id=":J11_0_0" index="0" disallow="pedestrian" speed="6.43" length="5.75" shape="47.53,107.39 48.33,107.15 49.21,106.37 50.17,105.06 51.22,103.23"/>
    </edge>
    <edge id=":J12_0" function="internal">
        <lane id=":J12_0_0" index="0" speed="4.30" length="1.16" shape="67.27,72.23 67.42,71.93 67.48,71.70 67.48,71.46 67.41,71.12"/>
    </edge>
    <edge id=":J13_0" function="internal">
        <lane id=":J13_0_0" index="0" disallow="pedestrian" speed="6.08" length="6.10" shape="61.36,46.01 60.74,43.97 59.99,42.49 59.12,41.59 58.12,41.26"/>
    </edge>
    <edge id=":J14_0" function="internal">
        <lane id=":J14_0_0" index="0" disallow="pedestrian" speed="6.84" length="5.45" shape="21.59,39.64 20.65,40.10 19.52,41.20 18.46,42.47 17.75,43.40"/>
    </edge>
    <edge id=":J9_0" function="internal">
        <lane id=":J9_0_0" index="0" speed="4.01" length="1.73" shape="-2.41,70.12 -2.64,70.50 -2.74,70.91 -2.73,71.32 -2.59,71.75"/>
    </edge> -->
    <!--########################################################################################################################################################-->

    <!-- <edge id="e1" from="J10" to="J11" priority="-1" spreadType="center">
        <lane id="e1_0" index="0" allow="pedestrian" speed="13.89" length="32.56" width="2.00" shape="15.04,104.04 47.59,104.79"/>
        <lane id="e1_1" index="1" disallow="pedestrian" speed="13.89" length="32.56" shape="14.98,106.64 47.53,107.39"/>
    </edge>
    <edge id="e2" from="J11" to="J12" priority="-1">
        <lane id="e2_0" index="0" speed="13.89" length="34.91" shape="51.22,103.23 67.27,72.23"/>
    </edge>
    <edge id="e3" from="J12" to="J13" priority="-1">
        <lane id="e3_0" index="0" speed="13.89" length="25.83" shape="67.41,71.12 61.36,46.01"/>
    </edge>
    <edge id="e4" from="J13" to="J14" priority="-1">
        <lane id="e4_0" index="0" allow="pedestrian" speed="13.89" length="36.57" width="2.00" shape="58.00,43.86 21.47,42.24"/>
        <lane id="e4_1" index="1" disallow="pedestrian" speed="13.89" length="36.57" shape="58.12,41.26 21.59,39.64"/>
    </edge>
    <edge id="e5" from="J14" to="J9" priority="-1">
        <lane id="e5_0" index="0" speed="13.89" length="33.47" shape="17.75,43.40 -2.41,70.12"/>
    </edge>
    <edge id="e6" from="J9" to="J10" priority="-1">
        <lane id="e6_0" index="0" speed="13.89" length="33.64" shape="-2.59,71.75 11.48,102.31"/>
    </edge> -->

    <edge id="1" from="J10" to="J11" priority="-1" spreadType="center">
        <lane id="1_0" index="0" allow="pedestrian" speed="13.89" length="32.56" width="2.00" shape="15.04,104.04 47.59,104.79"/>
        <lane id="1_1" index="1" disallow="pedestrian" speed="13.89" length="32.56" shape="14.98,106.64 47.53,107.39"/>
    </edge>
    <edge id="2" from="J11" to="J12" priority="-1">
        <lane id="2_0" index="0" speed="13.89" length="34.91" shape="51.22,103.23 67.27,72.23"/>
    </edge>
    <edge id="3" from="J12" to="J13" priority="-1">
        <lane id="3_0" index="0" speed="13.89" length="25.83" shape="67.41,71.12 61.36,46.01"/>
    </edge>
    <edge id="4" from="J13" to="J14" priority="-1">
        <lane id="4_0" index="0" allow="pedestrian" speed="13.89" length="36.57" width="2.00" shape="58.00,43.86 21.47,42.24"/>
        <lane id="4_1" index="1" disallow="pedestrian" speed="13.89" length="36.57" shape="58.12,41.26 21.59,39.64"/>
    </edge>
    <edge id="5" from="J14" to="J9" priority="-1">
        <lane id="5_0" index="0" speed="13.89" length="33.47" shape="17.75,43.40 -2.41,70.12"/>
    </edge>
    <edge id="0" from="J9" to="J10" priority="-1">
        <lane id="0_0" index="0" speed="13.89" length="33.64" shape="-2.59,71.75 11.48,102.31"/>
    </edge>
    <!-- ##################################################################################################################################################################3 -->

    <!-- <junction id="J10" type="priority" x="11.21" y="105.55" incLanes="0_0" intLanes=":J10_0_0" shape="14.94,108.24 15.06,103.04 14.16,102.87 13.78,102.67 13.45,102.40 13.17,102.06 12.93,101.64 10.03,102.98 11.64,105.87 12.45,106.89 13.27,107.63 14.10,108.07">
        <request index="0" response="0" foes="0" cont="0"/>
    </junction>
    <junction id="J11" type="priority" x="51.34" y="106.48" incLanes="1_0 1_1" intLanes=":J11_0_0" shape="52.64,103.97 49.80,102.50 49.25,103.23 48.91,103.49 48.52,103.66 48.09,103.77 47.61,103.79 47.49,108.99 49.18,108.46 50.04,107.76 50.90,106.78 51.77,105.52">
        <request index="0" response="0" foes="0" cont="0"/>
    </junction>
    <junction id="J12" type="priority" x="69.24" y="71.91" incLanes="2_0" intLanes=":J12_0_0" shape="68.96,70.75 65.85,71.50 68.69,72.97 69.05,72.19 69.12,71.90 69.12,71.59 69.07,71.22">
        <request index="0" response="0" foes="0" cont="0"/>
    </junction>
    <junction id="J13" type="priority" x="61.52" y="39.81" incLanes="3_0" intLanes=":J13_0_0" shape="59.81,46.38 62.92,45.63 61.77,42.38 61.04,41.23 60.20,40.39 59.25,39.87 58.19,39.66 57.96,44.86 58.83,45.06 59.17,45.27 59.45,45.56 59.66,45.93">
        <request index="0" response="0" foes="0" cont="0"/>
    </junction>
    <junction id="J14" type="priority" x="19.85" y="37.96" incLanes="4_0 4_1" intLanes=":J14_0_0" shape="21.43,43.24 21.66,38.04 20.28,38.49 19.46,39.10 18.55,39.96 17.55,41.07 16.47,42.44 19.02,44.37 19.69,43.71 20.08,43.48 20.49,43.33 20.94,43.25">
        <request index="0" response="0" foes="0" cont="0"/>
    </junction>
    <junction id="J9" type="priority" x="-4.84" y="70.68" incLanes="5_0" intLanes=":J9_0_0" shape="-4.04,72.42 -1.13,71.08 -3.69,69.15 -4.24,70.19 -4.35,70.73 -4.36,71.28 -4.25,71.84">
        <request index="0" response="0" foes="0" cont="0"/>
    </junction> -->

    <!-- HERE -->

    <junction id="J10" type="priority" x="11.21" y="105.55" incLanes="0_0" shape="14.94,108.24 15.06,103.04 14.16,102.87 13.78,102.67 13.45,102.40 13.17,102.06 12.93,101.64 10.03,102.98 11.64,105.87 12.45,106.89 13.27,107.63 14.10,108.07">
        <request index="0" response="0" foes="0" cont="0"/>
    </junction>
    <junction id="J11" type="priority" x="51.34" y="106.48" incLanes="1_0 1_1" shape="52.64,103.97 49.80,102.50 49.25,103.23 48.91,103.49 48.52,103.66 48.09,103.77 47.61,103.79 47.49,108.99 49.18,108.46 50.04,107.76 50.90,106.78 51.77,105.52">
        <request index="0" response="0" foes="0" cont="0"/>
    </junction>
    <junction id="J12" type="priority" x="69.24" y="71.91" incLanes="2_0" shape="68.96,70.75 65.85,71.50 68.69,72.97 69.05,72.19 69.12,71.90 69.12,71.59 69.07,71.22">
        <request index="0" response="0" foes="0" cont="0"/>
    </junction>
    <junction id="J13" type="priority" x="61.52" y="39.81" incLanes="3_0" shape="59.81,46.38 62.92,45.63 61.77,42.38 61.04,41.23 60.20,40.39 59.25,39.87 58.19,39.66 57.96,44.86 58.83,45.06 59.17,45.27 59.45,45.56 59.66,45.93">
        <request index="0" response="0" foes="0" cont="0"/>
    </junction>
    <junction id="J14" type="priority" x="19.85" y="37.96" incLanes="4_0 4_1" shape="21.43,43.24 21.66,38.04 20.28,38.49 19.46,39.10 18.55,39.96 17.55,41.07 16.47,42.44 19.02,44.37 19.69,43.71 20.08,43.48 20.49,43.33 20.94,43.25">
        <request index="0" response="0" foes="0" cont="0"/>
    </junction>
    <junction id="J9" type="priority" x="-4.84" y="70.68" incLanes="5_0" shape="-4.04,72.42 -1.13,71.08 -3.69,69.15 -4.24,70.19 -4.35,70.73 -4.36,71.28 -4.25,71.84">
        <request index="0" response="0" foes="0" cont="0"/>
    </junction>

<!-- ####################################################################################################################################################################################### -->
    <!-- <connection from="e1" to="e2" fromLane="1" toLane="0" via=":J11_0_0" dir="r" state="M"/>
    <connection from="e2" to="e3" fromLane="0" toLane="0" via=":J12_0_0" dir="s" state="M"/>
    <connection from="e3" to="e4" fromLane="0" toLane="1" via=":J13_0_0" dir="r" state="M"/>
    <connection from="e4" to="e5" fromLane="1" toLane="0" via=":J14_0_0" dir="r" state="M"/>
    <connection from="e5" to="e6" fromLane="0" toLane="0" via=":J9_0_0" dir="r" state="M"/>
    <connection from="e6" to="e1" fromLane="0" toLane="1" via=":J10_0_0" dir="r" state="M"/>

    <connection from=":J10_0" to="e1" fromLane="0" toLane="1" dir="r" state="M"/>
    <connection from=":J11_0" to="e2" fromLane="0" toLane="0" dir="r" state="M"/>
    <connection from=":J12_0" to="e3" fromLane="0" toLane="0" dir="s" state="M"/>
    <connection from=":J13_0" to="e4" fromLane="0" toLane="1" dir="r" state="M"/>
    <connection from=":J14_0" to="e5" fromLane="0" toLane="0" dir="r" state="M"/>
    <connection from=":J9_0" to="e6" fromLane="0" toLane="0" dir="r" state="M"/> -->

    <connection from="1" to="2" fromLane="1" toLane="0"  dir="r" state="M"/> <!--via=":J11_0_0"-->
    <connection from="2" to="3" fromLane="0" toLane="0"  dir="s" state="M"/> <!--via=":J12_0_0"-->
    <connection from="3" to="4" fromLane="0" toLane="1"  dir="r" state="M"/> <!--via=":J13_0_0"-->
    <connection from="4" to="5" fromLane="1" toLane="0"  dir="r" state="M"/> <!--via=":J14_0_0"-->
    <connection from="5" to="0" fromLane="0" toLane="0"  dir="r" state="M"/> <!--via=":J9_0_0"-->
    <connection from="0" to="1" fromLane="0" toLane="1"  dir="r" state="M"/> <!--via=":J10_0_0"-->

    <!-- HERE -->

    <!-- <connection from=":J10_0" to="1" fromLane="0" toLane="1" dir="r" state="M"/>
    <connection from=":J11_0" to="2" fromLane="0" toLane="0" dir="r" state="M"/>
    <connection from=":J12_0" to="3" fromLane="0" toLane="0" dir="s" state="M"/>
    <connection from=":J13_0" to="4" fromLane="0" toLane="1" dir="r" state="M"/>
    <connection from=":J14_0" to="5" fromLane="0" toLane="0" dir="r" state="M"/>
    <connection from=":J9_0" to="0" fromLane="0" toLane="0" dir="r" state="M"/> -->
</net>
