<?xml version="1.0" encoding="UTF-8"?>

<!-- generated on 2022-10-28 15:45:38 by Eclipse SUMO netedit Version 1.14.1
<configuration xmlns:xsi="http://www.w3.org/2001/XMLSchema-instance" xsi:noNamespaceSchemaLocation="http://sumo.dlr.de/xsd/netconvertConfiguration.xsd">

    <input>
        <sumo-net-file value="C:\Users\Joseph\FYP\demo.net.xml"/>
    </input>

    <output>
        <output-file value="C:\Users\Joseph\FYP\demo.net.xml"/>
    </output>

    <processing>
        <geometry.min-radius.fix.railways value="false"/>
        <geometry.max-grade.fix value="false"/>
        <offset.disable-normalization value="true"/>
        <lefthand value="false"/>
    </processing>

    <junctions>
        <no-internal-links value="true"/>
        <no-turnarounds value="true"/>
        <junctions.corner-detail value="5"/>
        <junctions.limit-turn-speed value="5.5"/>
        <rectangular-lane-cut value="false"/>
    </junctions>

    <pedestrian>
        <walkingareas value="false"/>
    </pedestrian>

</configuration>
-->

<net version="1.9" junctionCornerDetail="5" limitTurnSpeed="5.50" xmlns:xsi="http://www.w3.org/2001/XMLSchema-instance" xsi:noNamespaceSchemaLocation="http://sumo.dlr.de/xsd/net_file.xsd">

    <location netOffset="0.00,0.00" convBoundary="-4.84,37.96,69.24,106.48" origBoundary="-10000000000.00,-10000000000.00,10000000000.00,10000000000.00" projParameter="!"/>

    <edge id="0" from="J9" to="J10" priority="-1">
        <lane id="0_0" index="0" speed="13.89" length="35.63" shape="-0.44,76.41 11.48,102.31"/>
    </edge>
    <edge id="1" from="J10" to="J11" priority="-1" spreadType="center">
        <lane id="1_0" index="0" allow="pedestrian" speed="13.89" length="36.95" width="2.00" shape="15.04,104.04 47.59,104.79"/>
        <lane id="1_1" index="1" disallow="pedestrian" speed="13.89" length="36.95" shape="14.98,106.64 47.53,107.39"/>
    </edge>
    <edge id="2" from="J11" to="J12" priority="-1">
        <lane id="2_0" index="0" speed="13.89" length="39.50" shape="51.22,103.23 67.27,72.23"/>
    </edge>
    <edge id="3" from="J12" to="J13" priority="-1">
        <lane id="3_0" index="0" speed="13.89" length="30.62" shape="67.41,71.12 61.36,46.01"/>
    </edge>
    <edge id="4" from="J13" to="J14" priority="-1">
        <lane id="4_0" index="0" allow="pedestrian" speed="13.89" length="41.37" width="2.00" shape="58.00,43.86 25.35,42.41"/>
        <lane id="4_1" index="1" disallow="pedestrian" speed="13.89" length="41.37" shape="58.12,41.26 25.47,39.81"/>
    </edge>
    <edge id="5" from="J14" to="J9" priority="-1">
        <lane id="5_0" index="0" allow="pedestrian" speed="13.89" length="45.63" shape="21.63,43.57 0.01,72.22"/>
        <lane id="5_1" index="1" disallow="pedestrian" speed="13.89" length="45.63" shape="19.07,41.65 -2.54,70.29"/>
    </edge>

    <junction id="J10" type="priority" x="11.21" y="105.55" incLanes="0_0" intLanes="" shape="14.94,108.24 15.06,103.04 14.16,102.87 13.78,102.67 13.45,102.40 13.17,102.06 12.93,101.64 10.03,102.98 11.64,105.87 12.45,106.89 13.27,107.63 14.10,108.07">
        <request index="0" response="0" foes="0"/>
    </junction>
    <junction id="J11" type="priority" x="51.34" y="106.48" incLanes="1_0 1_1" intLanes="" shape="52.64,103.97 49.80,102.50 49.25,103.23 48.91,103.49 48.52,103.66 48.09,103.77 47.61,103.79 47.49,108.99 49.18,108.46 50.04,107.76 50.90,106.78 51.77,105.52">
        <request index="0" response="0" foes="0"/>
    </junction>
    <junction id="J12" type="priority" x="69.24" y="71.91" incLanes="2_0" intLanes="" shape="68.96,70.75 65.85,71.50 68.69,72.97 69.05,72.19 69.12,71.90 69.12,71.59 69.07,71.22">
        <request index="0" response="0" foes="0"/>
    </junction>
    <junction id="J13" type="priority" x="61.52" y="39.81" incLanes="3_0" intLanes="" shape="59.81,46.38 62.92,45.63 61.77,42.38 61.04,41.23 60.20,40.39 59.25,39.87 58.19,39.66 57.96,44.86 58.83,45.06 59.17,45.27 59.45,45.56 59.66,45.93">
        <request index="0" response="0" foes="0"/>
    </junction>
    <junction id="J14" type="priority" x="19.85" y="37.96" incLanes="4_0 4_1" intLanes="" shape="25.31,43.41 25.54,38.21 22.15,38.37 20.76,38.70 19.57,39.20 18.58,39.86 17.80,40.68 22.90,44.54 23.57,43.88 23.96,43.66 24.37,43.50 24.82,43.42">
        <request index="0" response="0" foes="0"/>
    </junction>
    <junction id="J9" type="priority" x="-4.84" y="70.68" incLanes="5_0 5_1" intLanes="" shape="-1.89,77.08 1.01,75.74 0.76,74.85 0.77,74.42 0.86,74.00 1.03,73.59 1.29,73.18 -3.82,69.33 -4.06,70.79 -3.85,71.94 -3.42,73.37 -2.77,75.09">
        <request index="0" response="0" foes="0"/>
    </junction>

    <connection from="0" to="1" fromLane="0" toLane="1" dir="r" state="M"/>
    <connection from="1" to="2" fromLane="1" toLane="0" dir="r" state="M"/>
    <connection from="2" to="3" fromLane="0" toLane="0" dir="s" state="M"/>
    <connection from="3" to="4" fromLane="0" toLane="1" dir="r" state="M"/>
    <connection from="4" to="5" fromLane="1" toLane="1" dir="r" state="M"/>
    <connection from="5" to="0" fromLane="1" toLane="0" dir="r" state="M"/>

</net>
