<?xml version="1.0" encoding="UTF-8"?>

<!-- generated on 2022-11-13 18:22:23 by Eclipse SUMO netedit Version 1.14.1
<configuration xmlns:xsi="http://www.w3.org/2001/XMLSchema-instance" xsi:noNamespaceSchemaLocation="http://sumo.dlr.de/xsd/netconvertConfiguration.xsd">

    <output>
        <output-file value="C:\Users\Joseph\FYP\ringtemp.net.xml"/>
    </output>

    <processing>
        <offset.disable-normalization value="true"/>
    </processing>

    <junctions>
        <no-turnarounds value="true"/>
    </junctions>

</configuration>
-->

<net version="1.9" junctionCornerDetail="5" limitTurnSpeed="5.50" xmlns:xsi="http://www.w3.org/2001/XMLSchema-instance" xsi:noNamespaceSchemaLocation="http://sumo.dlr.de/xsd/net_file.xsd">

    <location netOffset="0.00,0.00" convBoundary="0.00,0.00,3990.00,3990.00" origBoundary="10000000000.00,10000000000.00,-10000000000.00,-10000000000.00" projParameter="!"/>

    <edge id=":J0_0" function="internal">
        <lane id=":J0_0_0" index="0" speed="3.90" length="2.58" shape="-1.60,0.00 -1.50,-0.70 -1.20,-1.20 -0.70,-1.50 0.00,-1.60"/>
    </edge>
    <edge id=":J1_0" function="internal">
        <lane id=":J1_0_0" index="0" speed="13.89" length="0.10" shape="1330.00,-1.60 1330.00,-1.60"/>
    </edge>
    <edge id=":J10_0" function="internal">
        <lane id=":J10_0_0" index="0" speed="13.89" length="0.10" shape="-1.60,2660.00 -1.60,2660.00"/>
    </edge>
    <edge id=":J11_0" function="internal">
        <lane id=":J11_0_0" index="0" speed="13.89" length="0.10" shape="-1.60,1330.00 -1.60,1330.00"/>
    </edge>
    <edge id=":J2_0" function="internal">
        <lane id=":J2_0_0" index="0" speed="13.89" length="0.10" shape="2660.00,-1.60 2660.00,-1.60"/>
    </edge>
    <edge id=":J3_0" function="internal">
        <lane id=":J3_0_0" index="0" speed="3.90" length="2.58" shape="3990.00,-1.60 3990.70,-1.50 3991.20,-1.20 3991.50,-0.70 3991.60,0.00"/>
    </edge>
    <edge id=":J4_0" function="internal">
        <lane id=":J4_0_0" index="0" speed="13.89" length="0.10" shape="3991.60,1330.00 3991.60,1330.00"/>
    </edge>
    <edge id=":J5_0" function="internal">
        <lane id=":J5_0_0" index="0" speed="13.89" length="0.10" shape="3991.60,2660.00 3991.60,2660.00"/>
    </edge>
    <edge id=":J6_0" function="internal">
        <lane id=":J6_0_0" index="0" speed="3.90" length="2.58" shape="3991.60,3990.00 3991.50,3990.70 3991.20,3991.20 3990.70,3991.50 3990.00,3991.60"/>
    </edge>
    <edge id=":J7_0" function="internal">
        <lane id=":J7_0_0" index="0" speed="13.89" length="0.10" shape="2660.00,3991.60 2660.00,3991.60"/>
    </edge>
    <edge id=":J8_0" function="internal">
        <lane id=":J8_0_0" index="0" speed="13.89" length="0.10" shape="1330.00,3991.60 1330.00,3991.60"/>
    </edge>
    <edge id=":J9_0" function="internal">
        <lane id=":J9_0_0" index="0" speed="3.90" length="2.58" shape="0.00,3991.60 -0.70,3991.50 -1.20,3991.20 -1.50,3990.70 -1.60,3990.00"/>
    </edge>

    <edge id="E0" from="J0" to="J1" priority="-1">
        <lane id="E0_0" index="0" speed="13.89" length="1330.00" shape="0.00,-1.60 1330.00,-1.60"/>
    </edge>
    <edge id="E1" from="J1" to="J2" priority="-1">
        <lane id="E1_0" index="0" speed="13.89" length="1330.00" shape="1330.00,-1.60 2660.00,-1.60"/>
    </edge>
    <edge id="E10" from="J10" to="J11" priority="-1">
        <lane id="E10_0" index="0" speed="13.89" length="1330.00" shape="-1.60,2660.00 -1.60,1330.00"/>
    </edge>
    <edge id="E11" from="J11" to="J0" priority="-1">
        <lane id="E11_0" index="0" speed="13.89" length="1330.00" shape="-1.60,1330.00 -1.60,0.00"/>
    </edge>
    <edge id="E2" from="J2" to="J3" priority="-1">
        <lane id="E2_0" index="0" speed="13.89" length="1330.00" shape="2660.00,-1.60 3990.00,-1.60"/>
    </edge>
    <edge id="E3" from="J3" to="J4" priority="-1">
        <lane id="E3_0" index="0" speed="13.89" length="1330.00" shape="3991.60,0.00 3991.60,1330.00"/>
    </edge>
    <edge id="E4" from="J4" to="J5" priority="-1">
        <lane id="E4_0" index="0" speed="13.89" length="1330.00" shape="3991.60,1330.00 3991.60,2660.00"/>
    </edge>
    <edge id="E5" from="J5" to="J6" priority="-1">
        <lane id="E5_0" index="0" speed="13.89" length="1330.00" shape="3991.60,2660.00 3991.60,3990.00"/>
    </edge>
    <edge id="E6" from="J6" to="J7" priority="-1">
        <lane id="E6_0" index="0" speed="13.89" length="1330.00" shape="3990.00,3991.60 2660.00,3991.60"/>
    </edge>
    <edge id="E7" from="J7" to="J8" priority="-1">
        <lane id="E7_0" index="0" speed="13.89" length="1330.00" shape="2660.00,3991.60 1330.00,3991.60"/>
    </edge>
    <edge id="E8" from="J8" to="J9" priority="-1">
        <lane id="E8_0" index="0" speed="13.89" length="1330.00" shape="1330.00,3991.60 0.00,3991.60"/>
    </edge>
    <edge id="E9" from="J9" to="J10" priority="-1">
        <lane id="E9_0" index="0" speed="13.89" length="1330.00" shape="-1.60,3990.00 -1.60,2660.00"/>
    </edge>

    <junction id="J0" type="priority" x="0.00" y="0.00" incLanes="E11_0" intLanes=":J0_0_0" shape="-3.20,0.00 0.00,0.00 0.00,-3.20 -1.78,-2.84 -2.40,-2.40 -2.84,-1.78 -3.11,-0.98">
        <request index="0" response="0" foes="0" cont="0"/>
    </junction>
    <junction id="J1" type="priority" x="1330.00" y="0.00" incLanes="E0_0" intLanes=":J1_0_0" shape="1330.00,0.00 1330.00,-3.20 1330.00,0.00">
        <request index="0" response="0" foes="0" cont="0"/>
    </junction>
    <junction id="J10" type="priority" x="0.00" y="2660.00" incLanes="E9_0" intLanes=":J10_0_0" shape="-3.20,2660.00 0.00,2660.00 -3.20,2660.00">
        <request index="0" response="0" foes="0" cont="0"/>
    </junction>
    <junction id="J11" type="priority" x="0.00" y="1330.00" incLanes="E10_0" intLanes=":J11_0_0" shape="-3.20,1330.00 0.00,1330.00 -3.20,1330.00">
        <request index="0" response="0" foes="0" cont="0"/>
    </junction>
    <junction id="J2" type="priority" x="2660.00" y="0.00" incLanes="E1_0" intLanes=":J2_0_0" shape="2660.00,0.00 2660.00,-3.20 2660.00,0.00">
        <request index="0" response="0" foes="0" cont="0"/>
    </junction>
    <junction id="J3" type="priority" x="3990.00" y="0.00" incLanes="E2_0" intLanes=":J3_0_0" shape="3990.00,0.00 3993.20,0.00 3992.84,-1.78 3992.40,-2.40 3991.78,-2.84 3990.98,-3.11 3990.00,-3.20">
        <request index="0" response="0" foes="0" cont="0"/>
    </junction>
    <junction id="J4" type="priority" x="3990.00" y="1330.00" incLanes="E3_0" intLanes=":J4_0_0" shape="3990.00,1330.00 3993.20,1330.00 3990.00,1330.00">
        <request index="0" response="0" foes="0" cont="0"/>
    </junction>
    <junction id="J5" type="priority" x="3990.00" y="2660.00" incLanes="E4_0" intLanes=":J5_0_0" shape="3990.00,2660.00 3993.20,2660.00 3990.00,2660.00">
        <request index="0" response="0" foes="0" cont="0"/>
    </junction>
    <junction id="J6" type="priority" x="3990.00" y="3990.00" incLanes="E5_0" intLanes=":J6_0_0" shape="3993.20,3990.00 3990.00,3990.00 3990.00,3993.20 3991.78,3992.84 3992.40,3992.40 3992.84,3991.78 3993.11,3990.98">
        <request index="0" response="0" foes="0" cont="0"/>
    </junction>
    <junction id="J7" type="priority" x="2660.00" y="3990.00" incLanes="E6_0" intLanes=":J7_0_0" shape="2660.00,3993.20 2660.00,3990.00 2660.00,3993.20">
        <request index="0" response="0" foes="0" cont="0"/>
    </junction>
    <junction id="J8" type="priority" x="1330.00" y="3990.00" incLanes="E7_0" intLanes=":J8_0_0" shape="1330.00,3993.20 1330.00,3990.00 1330.00,3993.20">
        <request index="0" response="0" foes="0" cont="0"/>
    </junction>
    <junction id="J9" type="priority" x="0.00" y="3990.00" incLanes="E8_0" intLanes=":J9_0_0" shape="0.00,3993.20 0.00,3990.00 -3.20,3990.00 -2.84,3991.78 -2.40,3992.40 -1.78,3992.84 -0.98,3993.11">
        <request index="0" response="0" foes="0" cont="0"/>
    </junction>

    <connection from="E0" to="E1" fromLane="0" toLane="0" via=":J1_0_0" dir="s" state="M"/>
    <connection from="E1" to="E2" fromLane="0" toLane="0" via=":J2_0_0" dir="s" state="M"/>
    <connection from="E10" to="E11" fromLane="0" toLane="0" via=":J11_0_0" dir="s" state="M"/>
    <connection from="E11" to="E0" fromLane="0" toLane="0" via=":J0_0_0" dir="l" state="M"/>
    <connection from="E2" to="E3" fromLane="0" toLane="0" via=":J3_0_0" dir="l" state="M"/>
    <connection from="E3" to="E4" fromLane="0" toLane="0" via=":J4_0_0" dir="s" state="M"/>
    <connection from="E4" to="E5" fromLane="0" toLane="0" via=":J5_0_0" dir="s" state="M"/>
    <connection from="E5" to="E6" fromLane="0" toLane="0" via=":J6_0_0" dir="l" state="M"/>
    <connection from="E6" to="E7" fromLane="0" toLane="0" via=":J7_0_0" dir="s" state="M"/>
    <connection from="E7" to="E8" fromLane="0" toLane="0" via=":J8_0_0" dir="s" state="M"/>
    <connection from="E8" to="E9" fromLane="0" toLane="0" via=":J9_0_0" dir="l" state="M"/>
    <connection from="E9" to="E10" fromLane="0" toLane="0" via=":J10_0_0" dir="s" state="M"/>

    <connection from=":J0_0" to="E0" fromLane="0" toLane="0" dir="l" state="M"/>
    <connection from=":J1_0" to="E1" fromLane="0" toLane="0" dir="s" state="M"/>
    <connection from=":J10_0" to="E10" fromLane="0" toLane="0" dir="s" state="M"/>
    <connection from=":J11_0" to="E11" fromLane="0" toLane="0" dir="s" state="M"/>
    <connection from=":J2_0" to="E2" fromLane="0" toLane="0" dir="s" state="M"/>
    <connection from=":J3_0" to="E3" fromLane="0" toLane="0" dir="l" state="M"/>
    <connection from=":J4_0" to="E4" fromLane="0" toLane="0" dir="s" state="M"/>
    <connection from=":J5_0" to="E5" fromLane="0" toLane="0" dir="s" state="M"/>
    <connection from=":J6_0" to="E6" fromLane="0" toLane="0" dir="l" state="M"/>
    <connection from=":J7_0" to="E7" fromLane="0" toLane="0" dir="s" state="M"/>
    <connection from=":J8_0" to="E8" fromLane="0" toLane="0" dir="s" state="M"/>
    <connection from=":J9_0" to="E9" fromLane="0" toLane="0" dir="l" state="M"/>

</net>
