<additional>
    <busStop id="stop1" lane="0_1" startPos="221.67" endPos="231.67" lines="line1"/>
    <busStop id="stop2" lane="1_1" startPos="221.67" endPos="231.67" lines="line1"/>
    <busStop id="stop3" lane="2_1" startPos="221.67" endPos="231.67" lines="line1"/>
    <busStop id="stop4" lane="3_1" startPos="221.67" endPos="231.67" lines="line1"/>
    <busStop id="stop5" lane="4_1" startPos="221.67" endPos="231.67" lines="line1"/>
    <busStop id="stop6" lane="5_1" startPos="221.67" endPos="231.67" lines="line1"/>
    <busStop id="stop7" lane="6_1" startPos="221.67" endPos="231.67" lines="line1"/>
    <busStop id="stop8" lane="7_1" startPos="221.67" endPos="231.67" lines="line1"/>
    <busStop id="stop9" lane="8_1" startPos="221.67" endPos="231.67" lines="line1"/>
    <busStop id="stop10" lane="9_1" startPos="221.67" endPos="231.67" lines="line1"/>
    <busStop id="stop11" lane="10_1" startPos="221.67" endPos="231.67" lines="line1"/>
    <busStop id="stop12" lane="11_1" startPos="221.67" endPos="231.67" lines="line1"/>

    <vType id="BUS" vClass="bus" accel="2.6" decel="4.5" maxSpeed="20.00" sigma="0" length="12" minGap="3" color="1,1,0" guiShape="bus"/> <!-- max speed was 1.85,  THIS 16.67-->
    <vType id="traffic" vClass="passenger" color="255,0,255" guiShape="passenger"/>

    <route id="route1" edges="0 1 2 3 4 5 6 7 8 9 10 11" repeat="10000">
        <stop busStop="stop1" duration="15"/>
        <stop busStop="stop2" duration="15"/>
        <stop busStop="stop3" duration="15"/>
        <stop busStop="stop4" duration="15"/>
        <stop busStop="stop5" duration="15"/>
        <stop busStop="stop6" duration="15"/>
        <stop busStop="stop7" duration="15"/>
        <stop busStop="stop8" duration="15"/>
        <stop busStop="stop9" duration="15"/>
        <stop busStop="stop10" duration="15"/>
        <stop busStop="stop11" duration="15"/>
        <stop busStop="stop12" duration="15"/>
    </route>

    <route id="route2" edges="2 3 4 5 6 7 8 9 10 11 0 1" repeat="10000">
        <stop busStop="stop3" duration="15"/>
        <stop busStop="stop4" duration="15"/>
        <stop busStop="stop5" duration="15"/>
        <stop busStop="stop6" duration="15"/>
        <stop busStop="stop7" duration="15"/>
        <stop busStop="stop8" duration="15"/>
        <stop busStop="stop9" duration="15"/>
        <stop busStop="stop10" duration="15"/>
        <stop busStop="stop11" duration="15"/>
        <stop busStop="stop12" duration="15"/>
        <stop busStop="stop1" duration="15"/>
        <stop busStop="stop2" duration="15"/>
    </route>

    <route id="route3" edges="4 5 6 7 8 9 10 11 0 1 2 3" repeat="10000">
        <stop busStop="stop5" duration="15"/>
        <stop busStop="stop6" duration="15"/>
        <stop busStop="stop7" duration="15"/>
        <stop busStop="stop8" duration="15"/>
        <stop busStop="stop9" duration="15"/>
        <stop busStop="stop10" duration="15"/>
        <stop busStop="stop11" duration="15"/>
        <stop busStop="stop12" duration="15"/>
        <stop busStop="stop1" duration="15"/>
        <stop busStop="stop2" duration="15"/>
        <stop busStop="stop3" duration="15"/>
        <stop busStop="stop4" duration="15"/>
    </route>

    <route id="route4" edges="6 7 8 9 10 11 0 1 2 3 4 5" repeat="10000">
        <stop busStop="stop7" duration="15"/>
        <stop busStop="stop8" duration="15"/>
        <stop busStop="stop9" duration="15"/>
        <stop busStop="stop10" duration="15"/>
        <stop busStop="stop11" duration="15"/>
        <stop busStop="stop12" duration="15"/>
        <stop busStop="stop1" duration="15"/>
        <stop busStop="stop2" duration="15"/>
        <stop busStop="stop3" duration="15"/>
        <stop busStop="stop4" duration="15"/>
        <stop busStop="stop5" duration="15"/>
        <stop busStop="stop6" duration="15"/>
    </route>

    <route id="route5" edges="8 9 10 11 0 1 2 3 4 5 6 7" repeat="10000">
        <stop busStop="stop9" duration="15"/>
        <stop busStop="stop10" duration="15"/>
        <stop busStop="stop11" duration="15"/>
        <stop busStop="stop12" duration="15"/>
        <stop busStop="stop1" duration="15"/>
        <stop busStop="stop2" duration="15"/>
        <stop busStop="stop3" duration="15"/>
        <stop busStop="stop4" duration="15"/>
        <stop busStop="stop5" duration="15"/>
        <stop busStop="stop6" duration="15"/>
        <stop busStop="stop7" duration="15"/>
        <stop busStop="stop8" duration="15"/>
    </route>

    <route id="route6" edges="10 11 0 1 2 3 4 5 6 7 8 9" repeat="10000">
        <stop busStop="stop11" duration="15"/>
        <stop busStop="stop12" duration="15"/>
        <stop busStop="stop1" duration="15"/>
        <stop busStop="stop2" duration="15"/>
        <stop busStop="stop3" duration="15"/>
        <stop busStop="stop4" duration="15"/>
        <stop busStop="stop5" duration="15"/>
        <stop busStop="stop6" duration="15"/>
        <stop busStop="stop7" duration="15"/>
        <stop busStop="stop8" duration="15"/>
        <stop busStop="stop9" duration="15"/>
        <stop busStop="stop10" duration="15"/>
    </route>

    <route id="traffic" edges="E0"/>

    <vehicle id="bus.0" type="BUS" depart="0" line="line1" route="route1"/>
    <vehicle id="bus.1" type="BUS" depart="0" line="line1" route="route6"/>
    <vehicle id="bus.2" type="BUS" depart="0" line="line1" route="route5"/>
    <vehicle id="bus.3" type="BUS" depart="0" line="line1" route="route4"/>
    <vehicle id="bus.4" type="BUS" depart="0" line="line1" route="route3"/>
    <vehicle id="bus.5" type="BUS" depart="0" line="line1" route="route2"/>

</additional>